<?xml version="1.0" encoding="UTF-8"?>
<configuration>
	<input>
		<net-file value='net.net.xml'/>
		<route-files value='net.rou.xml'/>
		<additional-files value='net.add.xml'/>
	</input>
	<report>
		<verbose value='true'/>
		<no-step-log value='true'/>
		<step-length value='0.1'/>
	</report>
</configuration>
